/*--------------------------------*- C++ -*----------------------------------*\
| =========                 |                                                 |
| \\      /  F ield         | OpenFOAM: The Open Source CFD Toolbox           |
|  \\    /   O peration     | Version:  v1912                                 |
|   \\  /    A nd           | Website:  www.openfoam.com                      |
|    \\/     M anipulation  |                                                 |
\*---------------------------------------------------------------------------*/
FoamFile
{
    version     2.0;
    format      ascii;
    class       dictionary;
    object      topoSetDict;
}

// * * * * * * * * * * * * * * * * * * * * * * * * * * * * * * * * * * * * * //

actions
(

    {
        name    s1;
        type    faceSet;
        action  new;
        source  patchToFace;
        sourceInfo
	    {
       	    patch     "Walls";
    	}
    }

    {
        name    s1;
        type    faceSet;
        action  subset;
        source  boxToFace;        
        box (-1 0.2 -1) (1E-5 0.21 1);
    }

);

// ************************************************************************* //
