/*--------------------------------*- C++ -*----------------------------------*\
| =========                 |                                                 |
| \\      /  F ield         | OpenFOAM: The Open Source CFD Toolbox           |
|  \\    /   O peration     | Version:  2212                                  |
|   \\  /    A nd           | Website:  www.openfoam.com                      |
|    \\/     M anipulation  |                                                 |
\*---------------------------------------------------------------------------*/
FoamFile
{
    version     2.0;
    format      ascii;
    arch        "LSB;label=32;scalar=64";
    class       polyBoundaryMesh;
    location    "constant/polyMesh";
    object      boundary;
}
// * * * * * * * * * * * * * * * * * * * * * * * * * * * * * * * * * * * * * //

4
(
    Base
    {
        type            wall;
        inGroups        1(wall);
        nFaces          100;
        startFace       2700;
    }
    Walls
    {
        type            wall;
        inGroups        1(wall);
        nFaces          200;
        startFace       2800;
    }
    Top
    {
        type            patch;
        nFaces          100;
        startFace       3000;
    }
    FrontAndBack
    {
        type            empty;
        inGroups        1(empty);
        nFaces          200;
        startFace       3100;
    }
)

// ************************************************************************* //
