/*--------------------------------*- C++ -*----------------------------------*\
| =========                 |                                                 |
| \\      /  F ield         | OpenFOAM: The Open Source CFD Toolbox           |
|  \\    /   O peration     | Version:  v2212                                 |
|   \\  /    A nd           | Website:  www.openfoam.com                      |
|    \\/     M anipulation  |                                                 |
\*---------------------------------------------------------------------------*/
FoamFile
{
    version     2.0;
    format      ascii;
    class       volScalarField;
    object      T;
}
// * * * * * * * * * * * * * * * * * * * * * * * * * * * * * * * * * * * * * //

dimensions          [0 0 0 1 0 0 0];

internalField       uniform 360.95;      // 12.2 K subcooling

boundaryField
{
    "(Walls|Inlet)"

    {
        type            fixedValue;
        value           uniform 360.95;
    }

    Top
    {
        type            zeroGradient;
        value           $internalField;
    }

    FrontAndBack
    {
        type            empty;
    }

}


// ************************************************************************* //
