/*--------------------------------*- C++ -*----------------------------------*\
| =========                 |                                                 |
| \\      /  F ield         | OpenFOAM: The Open Source CFD Toolbox           |
|  \\    /   O peration     | Version:  v2212                                 |
|   \\  /    A nd           | Website:  www.openfoam.com                      |
|    \\/     M anipulation  |                                                 |
\*---------------------------------------------------------------------------*/
FoamFile
{
    version     2.0;
    format      ascii;
    class       dictionary;
    object      blockMeshDict;
}
// * * * * * * * * * * * * * * * * * * * * * * * * * * * * * * * * * * * * * //

scale   1;

vertices
(
    (-0.025       -0.025          0)
    ( 0.025       -0.025          0)
    ( 0.025        0.025          0)
    (-0.025        0.025          0)
    (-0.025       -0.025       0.05)
    ( 0.025       -0.025       0.05)
    ( 0.025        0.025       0.05)
    (-0.025        0.025       0.05)
);

blocks
(
    hex (0 1 2 3 4 5 6 7) (20 20 20) simpleGrading (1 1 10)       // 
);


edges
(
);

boundary
(

    Base
    {
        type    wall;
        faces
        (
            (0 3 2 1)
        );
    }
    Syms
    {
        type    symmetry;
        faces
        (
            (0 1 5 4)
            (1 2 6 5)
            (2 3 7 6)
            (0 4 7 3)
        );
    }
    
    Top
    {
        type    patch;
        faces
        (
            (4 5 6 7)
        );
    }

);

mergePatchPairs
(
);


// ************************************************************************* //
